@<TRIPOS>MOLECULE
TPS
   60    63     1     0     0
SMALL
abcg2


@<TRIPOS>ATOM
      1 NA          44.4530    84.8580    23.7330 ns         1 TPS      -0.436500
      2 HA          44.3400    84.1110    24.4020 hn         1 TPS       0.320500
      3 C1A         45.1030    84.6780    22.5520 c          1 TPS       0.538200
      4 C2A         45.0740    86.0120    21.9230 cc         1 TPS      -0.112400
      5 C3A         44.4070    86.9160    22.7410 cd         1 TPS      -0.115600
      6 C4A         44.0190    86.1480    23.9010 cd         1 TPS       0.286200
      7 CMA         45.7680    86.2120    20.5950 c3         1 TPS      -0.059900
      8 HMA1        46.5160    85.4330    20.4060 hc         1 TPS       0.073033
      9 HMA2        46.2930    87.1740    20.5680 hc         1 TPS       0.073033
     10 HMA3        45.0470    86.1880    19.7700 hc         1 TPS       0.073033
     11 OA          45.5960    83.6350    22.1480 o          1 TPS      -0.459000
     12 CAA         44.1750    88.3500    22.5040 cf         1 TPS      -0.202000
     13 HAA         44.0220    88.9660    23.3930 ha         1 TPS       0.185000
     14 CBA         44.1190    88.9460    21.2890 c2         1 TPS      -0.249000
     15 HBA1        43.9360    90.0180    21.2030 ha         1 TPS       0.180000
     16 HBA2        44.2260    88.3900    20.3600 ha         1 TPS       0.180000
     17 C5          43.3340    86.6150    24.9990 cf         1 TPS      -0.359600
     18 H5          43.0790    87.6680    24.9400 ha         1 TPS       0.234000
     19 NB          43.0070    84.6780    26.4310 na         1 TPS      -0.581000
     20 HB          43.3680    83.9770    25.8000 hn         1 TPS       0.522000
     21 C1B         42.8860    85.9810    26.2410 cc         1 TPS       0.203000
     22 C2B         42.3100    86.6850    27.3430 cc         1 TPS      -0.136200
     23 C3B         42.0740    85.7470    28.3110 cd         1 TPS      -0.096000
     24 C4B         42.5140    84.5180    27.7130 cd         1 TPS      -0.077000
     25 CMB         42.0530    88.1740    27.3690 c3         1 TPS      -0.044900
     26 HMB1        41.4470    88.4810    26.5080 hc         1 TPS       0.062033
     27 HMB2        42.9950    88.7340    27.3390 hc         1 TPS       0.062033
     28 HMB3        41.5110    88.4820    28.2700 hc         1 TPS       0.062033
     29 C10         42.4830    83.2880    28.3400 ce         1 TPS       0.062800
     30 H10         42.1460    83.3110    29.3740 ha         1 TPS       0.227000
     31 NC          42.7350    81.5480    26.5380 na         1 TPS      -0.118000
     32 HC          42.4470    82.1650    25.7940 hn         1 TPS       0.361000
     33 C1C         42.8170    81.9440    27.8690 cc         1 TPS      -0.247800
     34 C2C         43.2220    80.8330    28.5650 cd         1 TPS      -0.021000
     35 C3C         43.3940    79.7630    27.6420 cd         1 TPS      -0.141300
     36 C4C         43.0740    80.2070    26.3820 cc         1 TPS       0.041200
     37 CMC         43.8330    78.3560    27.9880 c3         1 TPS      -0.043800
     38 HMC1        44.1580    78.2600    29.0290 hc         1 TPS       0.062700
     39 HMC2        44.6750    78.0440    27.3580 hc         1 TPS       0.062700
     40 HMC3        43.0150    77.6430    27.8310 hc         1 TPS       0.062700
     41 C15         43.0460    79.4490    25.1280 ce         1 TPS      -0.266200
     42 H15         43.3810    78.4240    25.2680 ha         1 TPS       0.233000
     43 ND          42.2470    80.9250    23.3250 ns         1 TPS      -0.432100
     44 HD          42.0660    81.7680    23.8440 hn         1 TPS       0.322500
     45 C1D         42.7120    79.7320    23.8200 cd         1 TPS       0.119600
     46 C2D         42.7780    78.7990    22.7240 cd         1 TPS      -0.069200
     47 C3D         42.3490    79.4830    21.5930 cc         1 TPS      -0.075200
     48 C4D         42.0020    80.8730    21.9860 c          1 TPS       0.546200
     49 CMD         43.2230    77.3550    22.8140 c3         1 TPS      -0.059900
     50 HMD1        42.9530    76.7790    21.9230 hc         1 TPS       0.067033
     51 HMD2        42.7560    76.8500    23.6670 hc         1 TPS       0.067033
     52 HMD3        44.3100    77.2900    22.9380 hc         1 TPS       0.067033
     53 OD          41.5900    81.8050    21.3110 o          1 TPS      -0.465000
     54 CAD         42.2470    78.9630    20.2180 ce         1 TPS      -0.207000
     55 HAD         42.7130    77.9890    20.0650 ha         1 TPS       0.192000
     56 CBD         41.6460    79.5560    19.1630 c2         1 TPS      -0.237000
     57 HBD1        41.6280    79.0780    18.1820 ha         1 TPS       0.188000
     58 HBD2        41.1460    80.5220    19.2260 ha         1 TPS       0.188000
     59 HE1         43.4670    80.7580    30.0570 ha         1 TPS       0.162000
     60 HE2         41.4780    85.9580    29.6870 ha         1 TPS       0.230000
@<TRIPOS>BOND
     1     1     2 1   
     2     1     3 1   
     3     1     6 1   
     4     3     4 1   
     5     3    11 2   
     6     4     5 2   
     7     4     7 1   
     8     5     6 1   
     9     5    12 1   
    10     6    17 2   
    11     7     8 1   
    12     7     9 1   
    13     7    10 1   
    14    12    13 1   
    15    12    14 2   
    16    14    15 1   
    17    14    16 1   
    18    17    18 1   
    19    17    21 1   
    20    19    20 1   
    21    19    21 2   
    22    19    24 1   
    23    21    22 1   
    24    22    23 2   
    25    22    25 1   
    26    23    24 1   
    27    24    29 2   
    28    25    26 1   
    29    25    27 1   
    30    25    28 1   
    31    29    30 1   
    32    29    33 1   
    33    31    32 1   
    34    31    33 1   
    35    31    36 1   
    36    33    34 2   
    37    34    35 1   
    38    35    36 2   
    39    35    37 1   
    40    36    41 1   
    41    37    38 1   
    42    37    39 1   
    43    37    40 1   
    44    41    42 1   
    45    41    45 2   
    46    43    44 1   
    47    43    45 1   
    48    43    48 1   
    49    45    46 1   
    50    46    47 2   
    51    46    49 1   
    52    47    48 1   
    53    47    54 1   
    54    48    53 2   
    55    49    50 1   
    56    49    51 1   
    57    49    52 1   
    58    54    55 1   
    59    54    56 2   
    60    56    57 1   
    61    56    58 1   
    62    34    59 1   
    63    23    60 1   
@<TRIPOS>SUBSTRUCTURE
     1 TPS         1 TEMP              0 ****  ****    0 ROOT
