@<TRIPOS>MOLECULE
TPS
   60    63     1     0     0
SMALL
USER_CHARGES

@<TRIPOS>ATOM
      1 NA          1.917000    1.454000   -3.164000 ns         1 TPS    -0.525025768866000
      2 HA          1.804000    0.707000   -2.495000 hn         1 TPS     0.395657081036000
      3 C1A         2.567000    1.274000   -4.345000 c          1 TPS     0.579637597260000
      4 C2A         2.538000    2.608000   -4.974000 cc         1 TPS     0.058112443371000
      5 C3A         1.871000    3.512000   -4.156000 cd         1 TPS    -0.066726794983000
      6 C4A         1.483000    2.744000   -2.996000 cd         1 TPS     0.194763541809000
      7 CMA         3.232000    2.808000   -6.302000 c3         1 TPS    -0.346443721702000
      8 HMA1        3.980000    2.029000   -6.491000 hc         1 TPS     0.122936884096000
      9 HMA2        3.757000    3.770000   -6.329000 hc         1 TPS     0.122936884096000
     10 HMA3        2.511000    2.784000   -7.127000 hc         1 TPS     0.122936884096000
     11 OA          3.060000    0.231000   -4.749000 o          1 TPS    -0.551622345706000
     12 CAA         1.639000    4.946000   -4.393000 cf         1 TPS    -0.117567460823000
     13 HAA         1.486000    5.562000   -3.504000 ha         1 TPS     0.154659557931000
     14 CBA         1.583000    5.542000   -5.608000 c2         1 TPS    -0.334349384437000
     15 HBA1        1.400000    6.614000   -5.694000 ha         1 TPS     0.165868255855000
     16 HBA2        1.690000    4.986000   -6.537000 ha         1 TPS     0.184124776728000
     17 C5          0.798000    3.211000   -1.898000 cf         1 TPS    -0.239536932848000
     18 H5          0.543000    4.264000   -1.957000 ha         1 TPS     0.171394441057000
     19 NB          0.471000    1.274000   -0.466000 na         1 TPS     0.021158592415000
     20 HB          0.832000    0.573000   -1.097000 hn         1 TPS     0.326120968600000
     21 C1B         0.350000    2.577000   -0.656000 cc         1 TPS    -0.040959863549000
     22 C2B        -0.226000    3.281000    0.446000 cc         1 TPS     0.037022896805000
     23 C3B        -0.462000    2.343000    1.414000 cd         1 TPS     0.285110009447000
     24 C4B        -0.022000    1.114000    0.816000 cd         1 TPS    -0.472327256356000
     25 CMB        -0.483000    4.770000    0.472000 c3         1 TPS    -0.409198800951000
     26 HMB1       -1.089000    5.077000   -0.389000 hc         1 TPS     0.148636969675000
     27 HMB2        0.459000    5.330000    0.442000 hc         1 TPS     0.148636969675000
     28 HMB3       -1.025000    5.078000    1.373000 hc         1 TPS     0.148636969675000
     29 C10        -0.053000   -0.116000    1.443000 ce         1 TPS     0.133003638257000
     30 H10        -0.390000   -0.093000    2.477000 ha         1 TPS     0.317798110158000
     31 NC          0.199000   -1.856000   -0.359000 na         1 TPS     0.017866813640000
     32 HC         -0.089000   -1.239000   -1.103000 hn         1 TPS     0.311575754231000
     33 C1C         0.281000   -1.460000    0.972000 cc         1 TPS    -0.447996627977000
     34 C2C         0.686000   -2.571000    1.668000 cd         1 TPS     0.285110009447000
     35 C3C         0.858000   -3.641000    0.745000 cd         1 TPS    -0.001977741667000
     36 C4C         0.538000   -3.197000   -0.515000 cc         1 TPS    -0.046876664306000
     37 CMC         1.297000   -5.048000    1.091000 c3         1 TPS    -0.360903497216000
     38 HMC1        1.622000   -5.144000    2.132000 hc         1 TPS     0.137576084577000
     39 HMC2        2.139000   -5.360000    0.461000 hc         1 TPS     0.137576084577000
     40 HMC3        0.479000   -5.761000    0.934000 hc         1 TPS     0.137576084577000
     41 C15         0.510000   -3.955000   -1.769000 ce         1 TPS    -0.185440432775000
     42 H15         0.845000   -4.980000   -1.629000 ha         1 TPS     0.168641708889000
     43 ND         -0.289000   -2.479000   -3.572000 ns         1 TPS    -0.512930513891000
     44 HD         -0.470000   -1.636000   -3.053000 hn         1 TPS     0.381996861784000
     45 C1D         0.176000   -3.672000   -3.077000 cd         1 TPS     0.112218813617000
     46 C2D         0.242000   -4.605000   -4.173000 cd         1 TPS     0.095587270789000
     47 C3D        -0.187000   -3.921000   -5.304000 cc         1 TPS    -0.104206025829000
     48 C4D        -0.534000   -2.531000   -4.911000 c          1 TPS     0.640272852660000
     49 CMD         0.687000   -6.049000   -4.083000 c3         1 TPS    -0.362751909536000
     50 HMD1        0.417000   -6.625000   -4.974000 hc         1 TPS     0.136178767349000
     51 HMD2        0.220000   -6.554000   -3.230000 hc         1 TPS     0.136178767349000
     52 HMD3        1.774000   -6.114000   -3.959000 hc         1 TPS     0.136178767349000
     53 OD         -0.946000   -1.599000   -5.586000 o          1 TPS    -0.563600112423000
     54 CAD        -0.289000   -4.441000   -6.679000 ce         1 TPS    -0.123466387461000
     55 HAD         0.177000   -5.415000   -6.832000 ha         1 TPS     0.148771375403000
     56 CBD        -0.890000   -3.848000   -7.734000 c2         1 TPS    -0.364326003894000
     57 HBD1       -0.908000   -4.326000   -8.715000 ha         1 TPS     0.166734445746000
     58 HBD2       -1.390000   -2.882000   -7.671000 ha         1 TPS     0.189040313170000
     59 H2C         0.862157   -2.624926    2.740759 ha         1 TPS     0.000000000000000
     60 H3B        -0.890398    2.494664    2.403052 ha         1 TPS     0.000000000000000
@<TRIPOS>BOND
     1     1     2 1
     2     1     3 1
     3     1     6 1
     4     3     4 1
     5     3    11 2
     6     4     5 2
     7     4     7 1
     8     5     6 1
     9     5    12 1
    10     6    17 2
    11     7     8 1
    12     7     9 1
    13     7    10 1
    14    12    13 1
    15    12    14 2
    16    14    15 1
    17    14    16 1
    18    17    18 1
    19    17    21 1
    20    19    20 1
    21    19    21 2
    22    19    24 1
    23    21    22 1
    24    22    23 2
    25    22    25 1
    26    23    24 1
    27    24    29 2
    28    25    26 1
    29    25    27 1
    30    25    28 1
    31    29    30 1
    32    29    33 1
    33    31    32 1
    34    31    33 1
    35    31    36 1
    36    33    34 2
    37    34    35 1
    38    35    36 2
    39    35    37 1
    40    36    41 1
    41    37    38 1
    42    37    39 1
    43    37    40 1
    44    41    42 1
    45    41    45 2
    46    43    44 1
    47    43    45 1
    48    43    48 1
    49    45    46 1
    50    46    47 2
    51    46    49 1
    52    47    48 1
    53    47    54 1
    54    48    53 2
    55    49    50 1
    56    49    51 1
    57    49    52 1
    58    54    55 1
    59    54    56 2
    60    56    57 1
    61    56    58 1
    62    34    59 1
    63    23    60 1
@<TRIPOS>SUBSTRUCTURE
     1 TPS         1 TEMP              0 ****  ****    0 ROOT
