@<TRIPOS>MOLECULE
HIS
   21    21     1     0     0
SMALL
abcg2


@<TRIPOS>ATOM
      1 H           -1.8470    -2.2310     0.8520 hn         1 HIS       0.443500
      2 N           -1.7190    -0.9020     0.8520 n8         1 HIS      -1.030200
      3 H1          -2.5410    -0.3160     0.8520 hn         1 HIS       0.443500
      4 CA          -0.4210    -0.2580     0.8520 c3         1 HIS       0.106500
      5 HA           0.1330    -0.5560     1.7420 h1         1 HIS       0.090700
      6 CB           0.3870    -0.6510    -0.3800 c3         1 HIS      -0.026100
      7 HB2          0.5340    -1.7310    -0.3890 hc         1 HIS       0.109700
      8 HB3         -0.1510    -0.3500    -1.2790 hc         1 HIS       0.109700
      9 CG           1.7590    -0.0270    -0.4690 cc         1 HIS      -0.117300
     10 ND1          2.6180    -0.2850    -1.5310 na         1 HIS      -0.120700
     11 HD1          2.4250    -0.8880    -2.3170 hn         1 HIS       0.441000
     12 CE1          3.7310     0.3960    -1.3300 cc         1 HIS      -0.042300
     13 HE1          4.5450     0.3350    -2.0520 h5         1 HIS       0.247000
     14 NE2          3.6250     1.0660    -0.2090 na         1 HIS      -0.087000
     15 HE2          4.3380     1.6680     0.1760 hn         1 HIS       0.413000
     16 CD2          2.4120     0.8310     0.3600 cd         1 HIS      -0.148000
     17 HD2          2.1510     1.3100     1.3040 h4         1 HIS       0.219000
     18 C           -0.5620     1.2580     0.8520 c          1 HIS       0.546100
     19 O           -1.6740     1.7810     0.8520 o          1 HIS      -0.497000
     20 O1           0.5720     1.9630     0.8520 oh         1 HIS      -0.574100
     21 H2           1.4630     1.4870     0.8520 ho         1 HIS       0.473000
@<TRIPOS>BOND
     1     2     3 1   
     2     2     4 1   
     3     4     5 1   
     4     4     6 1   
     5     4    18 1   
     6     6     7 1   
     7     6     8 1   
     8     6     9 1   
     9     9    10 1   
    10     9    16 2   
    11    10    11 1   
    12    10    12 2   
    13    12    13 1   
    14    12    14 1   
    15    14    15 1   
    16    14    16 1   
    17    16    17 1   
    18    18    19 2   
    19    18    20 1   
    20    20    21 1   
    21     1     2 1   
@<TRIPOS>SUBSTRUCTURE
     1 HIS         1 TEMP              0 ****  ****    0 ROOT
